! RIJCOSX TightSCF UKS PBE
%MaxCore 300000
%pal nprocs 16
 end
%tddft
tda true
Nroots 10
MaxDim 4
end
%pointcharges "pointcharges_hack_fcenter.pc"
* xyz -29 2
Na    1.576189940425    1.576189940425    1.576189940425 NewGTO "def2-TZVP" end NewAuxCGTO "def2-TZVP/C" end NewAuxGTO "def2/J" end
  Na    -1.576189936605    -1.576189936605    1.576189940425 NewGTO "def2-TZVP" end NewAuxCGTO "def2-TZVP/C" end NewAuxGTO "def2/J" end
  Na    1.576189940425    -1.576189936605    -1.576189936605 NewGTO "def2-TZVP" end NewAuxCGTO "def2-TZVP/C" end NewAuxGTO "def2/J" end
  Na    -1.576189936605    1.576189940425    -1.576189936605 NewGTO "def2-TZVP" end NewAuxCGTO "def2-TZVP/C" end NewAuxGTO "def2/J" end
  Na    -2.839710352172    -2.839710352172    -2.839710352172
  Na    2.839710356002    2.839710356002    -2.839710352172
  Na    2.839710356002    -2.839710352172    2.839710356002
  Na    -2.839710352172    2.839710356002    2.839710356002
  Si> 4.00   -6.620893303589    -4.413310690860    0.000444953934  NewECP "HayWadt" end
  Si> 4.00   -6.620893303589    4.413310694690    -0.000444953934  NewECP "HayWadt" end
  Si    2.206578429931    -4.415891975913    -0.000130474083
  Si    2.206578429931    4.415891979738    0.000130474083
  Si> 4.00   6.620893307410    -4.413310690865    -0.000444953934  NewECP "HayWadt" end
  Si> 4.00   6.620893307410    4.413310694680    0.000444953934  NewECP "HayWadt" end
  Si    -2.206578426111    -4.415891975918    0.000130474083
  Si    -2.206578426111    4.415891979733    -0.000130474083
  Si> 4.00   0.000444953934    -6.620893303589    -4.413310690860  NewECP "HayWadt" end
  Si> 4.00   -0.000444953934    -6.620893303589    4.413310694690  NewECP "HayWadt" end
  Si    -0.000130474083    2.206578429931    -4.415891975913
  Si    0.000130474083    2.206578429931    4.415891979738
  Si> 4.00   -4.413310690860    0.000444953934    -6.620893303589  NewECP "HayWadt" end
  Si    -4.415891975913    -0.000130474083    2.206578429931
  Si> 4.00   4.413310694690    -0.000444953934    -6.620893303589  NewECP "HayWadt" end
  Si    4.415891979738    0.000130474083    2.206578429931
  Si> 4.00   -0.000444953934    6.620893307410    -4.413310690860  NewECP "HayWadt" end
  Si> 4.00   0.000444953934    6.620893307410    4.413310694690  NewECP "HayWadt" end
  Si    0.000130474083    -2.206578426111    -4.415891975913
  Si    -0.000130474083    -2.206578426111    4.415891979738
  Si> 4.00   -4.413310690865    -0.000444953934    6.620893307410  NewECP "HayWadt" end
  Si    -4.415891975918    0.000130474083    -2.206578426111
  Si> 4.00   4.413310694680    0.000444953934    6.620893307410  NewECP "HayWadt" end
  Si    4.415891979733    -0.000130474083    -2.206578426111
  Al> 3.00   -6.621360138923    0.000413541335    -4.413491601698  NewECP "HayWadt" end
  Al> 3.00   -6.621360138923    -0.000413541335    4.413491605520  NewECP "HayWadt" end
  Al    2.206330260505    0.000219909601    -4.414916004150
  Al    2.206330260505    -0.000219909601    4.414916007975
  Al> 3.00   6.621360142740    -0.000413541335    -4.413491601698  NewECP "HayWadt" end
  Al> 3.00   6.621360142740    0.000413541335    4.413491605520  NewECP "HayWadt" end
  Al    -2.206330256685    -0.000219909601    -4.414916004150
  Al    -2.206330256685    0.000219909601    4.414916007975
  Al> 3.00   -4.413491601698    -6.621360138923    0.000413541335  NewECP "HayWadt" end
  Al    -4.414916004150    2.206330260505    0.000219909601 
  Al> 3.00   4.413491605520    -6.621360138923    -0.000413541335  NewECP "HayWadt" end
  Al    4.414916007975    2.206330260505    -0.000219909601
  Al> 3.00   0.000413541335    -4.413491601698    -6.621360138923  NewECP "HayWadt" end
  Al    0.000219909601    -4.414916004150    2.206330260505
  Al> 3.00   -0.000413541335    4.413491605520    -6.621360138923  NewECP "HayWadt" end
  Al    -0.000219909601    4.414916007975    2.206330260505
  Al> 3.00   -4.413491601703    6.621360142740    -0.000413541335  NewECP "HayWadt" end
  Al    -4.414916004155    -2.206330256685    -0.000219909601
  Al> 3.00   4.413491605520    6.621360142740    0.000413541335  NewECP "HayWadt" end
  Al    4.414916007970    -2.206330256685    0.000219909601
  Al> 3.00   -0.000413541335    -4.413491601698    6.621360142740  NewECP "HayWadt" end
  Al    -0.000219909601    -4.414916004150    -2.206330256685
  Al> 3.00   0.000413541335    4.413491605520    6.621360142740  NewECP "HayWadt" end
  Al    0.000219909601    4.414916007975    -2.206330256685
   O    1.228352616153    1.314673024161    -5.002173989441
   O    1.237863692768    1.324390994622    3.830407978903
   O    -1.228352612333    -1.314673020341    -5.002173989441
   O    -1.237863688948    -1.324390990802    3.830407978903
   O    1.228352616153    -1.314673020341    5.002173993261
   O    1.237863692768    -1.324390990802    -3.830407975083
   O    -1.228352612333    1.314673024161    5.002173993261
   O    -1.237863688948    1.324390994622    -3.830407975083
   O    -5.002173989441    1.228352616153    1.314673024161
   O    3.830407978903    1.237863692768    1.324390994622
   O    1.314673024161    -5.002173989441    1.228352616153
   O    1.324390994622    3.830407978903    1.237863692768
   O    5.002173993261    -1.228352612333    1.314673024161
   O    -3.830407975083    -1.237863688948    1.324390994622
   O    -1.314673020341    -5.002173989441    -1.228352612333
   O    -1.324390990802    3.830407978903    -1.237863688948
   O    -5.002173989441    -1.228352612333    -1.314673020341
   O    3.830407978903    -1.237863688948    -1.324390990802
   O    -1.314673020341    5.002173993261    1.228352616153
   O    -1.324390990802    -3.830407975083    1.237863692768
   O    5.002173993261    1.228352616153    -1.314673020341
   O    -3.830407975083    1.237863692768    -1.324390990802
   O    1.314673024161    5.002173993261    -1.228352612333
   O    1.324390994622    -3.830407975083    -1.237863688948
   O    5.734454646587    -3.179919045728    -0.585433836155
   O    -3.092844480930    5.649944770220    -0.585534474005
   O    -3.105206739411    -3.192023955101    -0.586518798287
   O    -5.734454642757    3.179919049558    -0.585433836155
   O    3.092844484760    -5.649944766390    -0.585534474005
   O    3.105206743241    3.192023958931    -0.586518798287
   O    -5.734454642757    -3.179919045728    0.585433839985
   O    3.092844484760    5.649944770220    0.585534477835
   O    3.105206743241    -3.192023955101    0.586518802117
   O    5.734454646587    3.179919049558    0.585433839985
   O    -3.092844480930    -5.649944766390    0.585534477835
   O    -3.105206739411    3.192023958931    0.586518802117
   O    5.649944770220    -0.585534474005    -3.092844480930
   O    -3.179919045728    -0.585433836155    5.734454646587
   O    -3.192023955101    -0.586518798287    -3.105206739411
   O    -0.585433836155    5.734454646587    -3.179919045728
   O    -0.585534474005    -3.092844480930    5.649944770220
   O    -0.586518798287    -3.105206739411    -3.192023955101
   O    -5.649944766390    0.585534477835    -3.092844480930
   O    3.179919049558    0.585433839985    5.734454646587
   O    3.192023958931    0.586518802117    -3.105206739411
   O    -0.585433836155    -5.734454642757    3.179919049558
   O    -0.585534474005    3.092844484760    -5.649944766390
   O    -0.586518798287    3.105206743241    3.192023958931
   O    -5.649944766390    -0.585534474005    3.092844484760
   O    3.179919049558    -0.585433836155    -5.734454642757
   O    3.192023958931    -0.586518798287    3.105206743241
   O    0.585433839985    -5.734454642757    -3.179919045728
   O    0.585534477835    3.092844484760    5.649944770220
   O    0.586518802117    3.105206743241    -3.192023955101
   O    5.649944770220    0.585534477835    3.092844484760
   O    -3.179919045728    0.585433839985    -5.734454642757
   O    -3.192023955101    0.586518802117    3.105206743241
   O    0.585433839985    5.734454646587    3.179919049558
   O    0.585534477835    -3.092844480930    -5.649944766390
   O    0.586518802117    -3.105206739411    3.192023958931
*
%scf
print[p_mos] 647
MaxIter 500
end
%plots
Format Gaussian_Cube
ElDens("electrondensity");
end 
%basis
 NewGTO 16 "def2-SVP" end
 NewGTO 11 "def2-SVP" end
 NewAuxCGTO 11 "def2-SVP/C" end
 NewAuxCGTO 16 "def2-SVP/C" end
 NewAuxGTO 11 "def2/J" end
 NewAuxGTO 16 "def2/J" end
 NewGTO 8 "def2-SVP" end
 NewAuxCGTO 8 "def2-SVP/C" end
 NewAuxGTO 8 "def2/J" end
 NewAuxCGTO 13 "def2-SVP/C" end
 NewAuxCGTO 14 "def2-SVP/C" end
 NewAuxGTO 13 "def2/J" end
 NewAuxGTO 14 "def2/J" end
 NewGTO 13 "def2-SVP" end
 NewGTO 14 "def2-SVP" end
end
